 xtb: 6.7.1 (edcfbbe)
          07172615503D

 60 40  0     0  0            999 V2000
   -1.2032   -2.0816   -2.7712 O   0  0  0  0  0  0  0  0  0  0  0  0
   -1.8582   -2.6194   -3.2147 H   0  0  0  0  0  0  0  0  0  0  0  0
   -1.5272   -1.1595   -2.8000 H   0  0  0  0  0  0  0  0  0  0  0  0
   -2.3023   -2.1869   -0.0279 O   0  0  0  0  0  0  0  0  0  0  0  0
   -2.3058   -1.2171   -0.0075 H   0  0  0  0  0  0  0  0  0  0  0  0
   -1.5246   -2.4309   -0.5545 H   0  0  0  0  0  0  0  0  0  0  0  0
   -1.7035   -2.6918    2.4625 O   0  0  0  0  0  0  0  0  0  0  0  0
   -1.9389   -2.5384    1.5027 H   0  0  0  0  0  0  0  0  0  0  0  0
   -2.4371   -3.1732    2.8442 H   0  0  0  0  0  0  0  0  0  0  0  0
   -1.7723    0.6022   -2.6002 O   0  0  0  0  0  0  0  0  0  0  0  0
   -0.7977    0.7382   -2.7269 H   0  0  0  0  0  0  0  0  0  0  0  0
   -1.8819    0.5011   -1.6242 H   0  0  0  0  0  0  0  0  0  0  0  0
   -1.7846    0.5188    0.0566 O   0  0  0  0  0  0  0  0  0  0  0  0
   -0.8098    0.3507    0.0843 H   0  0  0  0  0  0  0  0  0  0  0  0
   -1.8909    1.4659    0.2494 H   0  0  0  0  0  0  0  0  0  0  0  0
   -0.2917   -0.4292    3.2937 O   0  0  0  0  0  0  0  0  0  0  0  0
   -0.8909   -1.1362    3.0039 H   0  0  0  0  0  0  0  0  0  0  0  0
   -0.7465    0.4083    3.1311 H   0  0  0  0  0  0  0  0  0  0  0  0
   -2.2971    3.1870   -2.4245 O   0  0  0  0  0  0  0  0  0  0  0  0
   -2.1935    2.2097   -2.5744 H   0  0  0  0  0  0  0  0  0  0  0  0
   -2.9654    3.4897   -3.0383 H   0  0  0  0  0  0  0  0  0  0  0  0
   -1.7925    3.2537    0.3206 O   0  0  0  0  0  0  0  0  0  0  0  0
   -2.1477    3.3553   -0.5773 H   0  0  0  0  0  0  0  0  0  0  0  0
   -0.8676    3.5729    0.2539 H   0  0  0  0  0  0  0  0  0  0  0  0
   -1.2912    2.2160    2.8351 O   0  0  0  0  0  0  0  0  0  0  0  0
   -1.7466    2.6952    3.5278 H   0  0  0  0  0  0  0  0  0  0  0  0
   -1.6039    2.5785    1.9890 H   0  0  0  0  0  0  0  0  0  0  0  0
    1.4315   -1.5472   -3.4715 O   0  0  0  0  0  0  0  0  0  0  0  0
    0.5446   -1.8837   -3.2551 H   0  0  0  0  0  0  0  0  0  0  0  0
    2.0254   -1.9225   -2.8049 H   0  0  0  0  0  0  0  0  0  0  0  0
    0.4749   -2.6898   -0.2850 O   0  0  0  0  0  0  0  0  0  0  0  0
    0.7031   -2.9186    0.6329 H   0  0  0  0  0  0  0  0  0  0  0  0
    1.2219   -2.9621   -0.8342 H   0  0  0  0  0  0  0  0  0  0  0  0
    0.9948   -3.0525    2.4254 O   0  0  0  0  0  0  0  0  0  0  0  0
    0.0293   -3.1578    2.5072 H   0  0  0  0  0  0  0  0  0  0  0  0
    1.1909   -2.2877    2.9758 H   0  0  0  0  0  0  0  0  0  0  0  0
    0.8588    0.9092   -2.6561 O   0  0  0  0  0  0  0  0  0  0  0  0
    1.1766    0.1057   -3.1292 H   0  0  0  0  0  0  0  0  0  0  0  0
    0.9678    0.6828   -1.7101 H   0  0  0  0  0  0  0  0  0  0  0  0
    0.7700   -0.0476   -0.1598 O   0  0  0  0  0  0  0  0  0  0  0  0
    0.6662   -1.0191   -0.2865 H   0  0  0  0  0  0  0  0  0  0  0  0
    1.3332    0.0626    0.6381 H   0  0  0  0  0  0  0  0  0  0  0  0
    2.0770    0.1357    2.1419 O   0  0  0  0  0  0  0  0  0  0  0  0
    1.2836   -0.1226    2.6559 H   0  0  0  0  0  0  0  0  0  0  0  0
    2.1098    1.1106    2.2399 H   0  0  0  0  0  0  0  0  0  0  0  0
    0.4715    3.5942   -2.5770 O   0  0  0  0  0  0  0  0  0  0  0  0
    0.7606    2.6785   -2.7416 H   0  0  0  0  0  0  0  0  0  0  0  0
   -0.4984    3.5731   -2.6300 H   0  0  0  0  0  0  0  0  0  0  0  0
    0.7622    4.0741   -0.0327 O   0  0  0  0  0  0  0  0  0  0  0  0
    0.7609    3.8715   -1.0116 H   0  0  0  0  0  0  0  0  0  0  0  0
    1.0336    4.9889    0.0461 H   0  0  0  0  0  0  0  0  0  0  0  0
    1.4576    2.7258    2.3139 O   0  0  0  0  0  0  0  0  0  0  0  0
    1.3581    3.1443    1.4454 H   0  0  0  0  0  0  0  0  0  0  0  0
    0.5551    2.5559    2.6242 H   0  0  0  0  0  0  0  0  0  0  0  0
    2.9833   -2.7462   -1.4349 O   0  0  0  0  0  0  0  0  0  0  0  0
    3.7496   -3.2200   -1.7573 H   0  0  0  0  0  0  0  0  0  0  0  0
    3.2238   -2.4025   -0.5423 H   0  0  0  0  0  0  0  0  0  0  0  0
    3.3955   -2.0714    1.1160 O   0  0  0  0  0  0  0  0  0  0  0  0
    2.8343   -2.6975    1.5888 H   0  0  0  0  0  0  0  0  0  0  0  0
    3.1286   -1.1959    1.4411 H   0  0  0  0  0  0  0  0  0  0  0  0
  1  2  1  0  0  0  0
  1  3  1  0  0  0  0
  4  5  1  0  0  0  0
  4  6  1  0  0  0  0
  7  8  1  0  0  0  0
  7  9  1  0  0  0  0
 10 11  1  0  0  0  0
 10 12  1  0  0  0  0
 13 14  1  0  0  0  0
 13 15  1  0  0  0  0
 16 17  1  0  0  0  0
 16 18  1  0  0  0  0
 19 20  1  0  0  0  0
 19 21  1  0  0  0  0
 22 23  1  0  0  0  0
 22 24  1  0  0  0  0
 25 26  1  0  0  0  0
 25 27  1  0  0  0  0
 28 29  1  0  0  0  0
 28 30  1  0  0  0  0
 31 32  1  0  0  0  0
 31 33  1  0  0  0  0
 34 35  1  0  0  0  0
 34 36  1  0  0  0  0
 37 38  1  0  0  0  0
 37 39  1  0  0  0  0
 40 41  1  0  0  0  0
 40 42  1  0  0  0  0
 43 44  1  0  0  0  0
 43 45  1  0  0  0  0
 46 47  1  0  0  0  0
 46 48  1  0  0  0  0
 49 50  1  0  0  0  0
 49 51  1  0  0  0  0
 52 53  1  0  0  0  0
 52 54  1  0  0  0  0
 55 56  1  0  0  0  0
 55 57  1  0  0  0  0
 58 59  1  0  0  0  0
 58 60  1  0  0  0  0
M  END
