 xtb: 6.7.1 (edcfbbe)
          07172616153D

 16 16  0     0  0            999 V2000
   -0.6163    1.1960    0.4943 C   0  0  0  0  0  0  0  0  0  0  0  0
    0.0073    0.1680   -0.3953 C   0  0  0  0  0  0  0  0  0  0  0  0
    1.3173   -0.0092   -0.3335 C   0  0  0  0  0  0  0  0  0  0  0  0
    2.1456    0.8819    0.5385 C   0  0  0  0  0  0  0  0  0  0  0  0
    1.4948    1.1720    1.9041 C   0  0  0  0  0  0  0  0  0  0  0  0
   -0.0288    1.0050    1.9043 C   0  0  0  0  0  0  0  0  0  0  0  0
   -0.3741    2.2017    0.1385 H   0  0  0  0  0  0  0  0  0  0  0  0
   -1.7014    1.0951    0.5202 H   0  0  0  0  0  0  0  0  0  0  0  0
   -0.6278   -0.4349   -1.0262 H   0  0  0  0  0  0  0  0  0  0  0  0
    1.8251   -0.7548   -0.9267 H   0  0  0  0  0  0  0  0  0  0  0  0
    3.1403    0.4584    0.6843 H   0  0  0  0  0  0  0  0  0  0  0  0
    2.2753    1.8312    0.0076 H   0  0  0  0  0  0  0  0  0  0  0  0
    1.9207    0.5034    2.6541 H   0  0  0  0  0  0  0  0  0  0  0  0
    1.7524    2.1911    2.1992 H   0  0  0  0  0  0  0  0  0  0  0  0
   -0.4823    1.7121    2.6004 H   0  0  0  0  0  0  0  0  0  0  0  0
   -0.2882   -0.0024    2.2362 H   0  0  0  0  0  0  0  0  0  0  0  0
  1  2  1  0  0  0  0
  2  3  2  0  0  0  0
  3  4  1  0  0  0  0
  4  5  1  0  0  0  0
  1  6  1  0  0  0  0
  5  6  1  0  0  0  0
  1  7  1  0  0  0  0
  1  8  1  0  0  0  0
  2  9  1  0  0  0  0
  3 10  1  0  0  0  0
  4 11  1  0  0  0  0
  4 12  1  0  0  0  0
  5 13  1  0  0  0  0
  5 14  1  0  0  0  0
  6 15  1  0  0  0  0
  6 16  1  0  0  0  0
M  END
