 xtb: 6.7.1 (edcfbbe)
          07172616163D

 16 16  0     0  0            999 V2000
   -0.6250    1.0000    0.4454 C   0  0  0  0  0  0  0  0  0  0  0  0
    0.0731   -0.1724   -0.1653 C   0  0  0  0  0  0  0  0  0  0  0  0
    1.3970   -0.1723   -0.1652 C   0  0  0  0  0  0  0  0  0  0  0  0
    2.0949    1.0005    0.4452 C   0  0  0  0  0  0  0  0  0  0  0  0
    1.5041    1.2867    1.8381 C   0  0  0  0  0  0  0  0  0  0  0  0
   -0.0342    1.2870    1.8382 C   0  0  0  0  0  0  0  0  0  0  0  0
   -0.4714    1.8789   -0.1885 H   0  0  0  0  0  0  0  0  0  0  0  0
   -1.6985    0.8293    0.5273 H   0  0  0  0  0  0  0  0  0  0  0  0
   -0.5127   -0.9826   -0.5709 H   0  0  0  0  0  0  0  0  0  0  0  0
    1.9830   -0.9825   -0.5705 H   0  0  0  0  0  0  0  0  0  0  0  0
    3.1684    0.8300    0.5270 H   0  0  0  0  0  0  0  0  0  0  0  0
    1.9411    1.8793   -0.1889 H   0  0  0  0  0  0  0  0  0  0  0  0
    1.8668    0.5193    2.5233 H   0  0  0  0  0  0  0  0  0  0  0  0
    1.8847    2.2462    2.1908 H   0  0  0  0  0  0  0  0  0  0  0  0
   -0.4144    2.2468    2.1903 H   0  0  0  0  0  0  0  0  0  0  0  0
   -0.3971    0.5201    2.5239 H   0  0  0  0  0  0  0  0  0  0  0  0
  1  2  1  0  0  0  0
  2  3  2  0  0  0  0
  3  4  1  0  0  0  0
  4  5  1  0  0  0  0
  1  6  1  0  0  0  0
  5  6  1  0  0  0  0
  1  7  1  0  0  0  0
  1  8  1  0  0  0  0
  2  9  1  0  0  0  0
  3 10  1  0  0  0  0
  4 11  1  0  0  0  0
  4 12  1  0  0  0  0
  5 13  1  0  0  0  0
  5 14  1  0  0  0  0
  6 15  1  0  0  0  0
  6 16  1  0  0  0  0
M  END
