 xtb: 6.7.1pre (5071a88)
          07032611213D

 12  8  0     0  0            999 V2000
    1.8968   -0.1500    0.3443 O   0  0  0  0  0  0  0  0  0  0  0  0
    2.3401   -0.6252   -0.3599 H   0  0  0  0  0  0  0  0  0  0  0  0
    1.2355   -0.7752    0.7180 H   0  0  0  0  0  0  0  0  0  0  0  0
    0.1172    1.7376   -0.3754 O   0  0  0  0  0  0  0  0  0  0  0  0
    0.2755    2.5089    0.1708 H   0  0  0  0  0  0  0  0  0  0  0  0
    0.8403    1.1046   -0.1649 H   0  0  0  0  0  0  0  0  0  0  0  0
   -1.9007    0.1147    0.3597 O   0  0  0  0  0  0  0  0  0  0  0  0
   -2.3916   -0.1142   -0.4308 H   0  0  0  0  0  0  0  0  0  0  0  0
   -1.2364    0.7850    0.0810 H   0  0  0  0  0  0  0  0  0  0  0  0
   -0.1154   -1.6995    1.2362 O   0  0  0  0  0  0  0  0  0  0  0  0
   -0.2193   -1.7770    2.1857 H   0  0  0  0  0  0  0  0  0  0  0  0
   -0.8420   -1.1097    0.9319 H   0  0  0  0  0  0  0  0  0  0  0  0
  1  2  1  0  0  0  0
  1  3  1  0  0  0  0
  4  5  1  0  0  0  0
  4  6  1  0  0  0  0
  7  8  1  0  0  0  0
  7  9  1  0  0  0  0
 10 11  1  0  0  0  0
 10 12  1  0  0  0  0
M  END
