 xtb: 6.7.1 (edcfbbe)
          07172617003D

 16 14  0     0  0            999 V2000
   -0.7005    1.0214    0.0766 C   0  0  0  0  0  0  0  0  0  0  0  0
    0.0271   -0.0624   -0.2836 C   0  0  0  0  0  0  0  0  0  0  0  0
    1.4428   -0.0624   -0.2835 C   0  0  0  0  0  0  0  0  0  0  0  0
    2.1703    1.0215    0.0770 C   0  0  0  0  0  0  0  0  0  0  0  0
    1.4105    1.2254    2.2538 C   0  0  0  0  0  0  0  0  0  0  0  0
    0.0598    1.2255    2.2540 C   0  0  0  0  0  0  0  0  0  0  0  0
   -0.3129    2.0179   -0.0261 H   0  0  0  0  0  0  0  0  0  0  0  0
   -1.7706    0.9494    0.1853 H   0  0  0  0  0  0  0  0  0  0  0  0
   -0.4661   -1.0208   -0.3804 H   0  0  0  0  0  0  0  0  0  0  0  0
    1.9362   -1.0207   -0.3802 H   0  0  0  0  0  0  0  0  0  0  0  0
    3.2404    0.9495    0.1859 H   0  0  0  0  0  0  0  0  0  0  0  0
    1.7826    2.0179   -0.0258 H   0  0  0  0  0  0  0  0  0  0  0  0
    1.9604    0.3292    2.4817 H   0  0  0  0  0  0  0  0  0  0  0  0
    1.9653    2.1468    2.2915 H   0  0  0  0  0  0  0  0  0  0  0  0
   -0.4949    2.1470    2.2918 H   0  0  0  0  0  0  0  0  0  0  0  0
   -0.4902    0.3294    2.4821 H   0  0  0  0  0  0  0  0  0  0  0  0
  1  2  2  0  0  0  0
  2  3  4  0  0  0  0
  3  4  2  0  0  0  0
  5  6  2  0  0  0  0
  1  7  1  0  0  0  0
  1  8  1  0  0  0  0
  2  9  1  0  0  0  0
  3 10  1  0  0  0  0
  4 11  1  0  0  0  0
  4 12  1  0  0  0  0
  5 13  1  0  0  0  0
  5 14  1  0  0  0  0
  6 15  1  0  0  0  0
  6 16  1  0  0  0  0
M  END
