 xtb: 6.7.1 (edcfbbe)
          07172616053D

 16 16  0     0  0            999 V2000
    1.5133    0.0306   -0.0000 C   0  0  0  0  0  0  0  0  0  0  0  0
    0.6590    1.2527   -0.0000 C   0  0  0  0  0  0  0  0  0  0  0  0
   -0.6590    1.2527    0.0000 C   0  0  0  0  0  0  0  0  0  0  0  0
   -1.5133    0.0306   -0.0000 C   0  0  0  0  0  0  0  0  0  0  0  0
   -0.7732   -1.3186   -0.0000 C   0  0  0  0  0  0  0  0  0  0  0  0
    0.7732   -1.3186    0.0000 C   0  0  0  0  0  0  0  0  0  0  0  0
    2.1691    0.0854    0.8746 H   0  0  0  0  0  0  0  0  0  0  0  0
    2.1691    0.0854   -0.8746 H   0  0  0  0  0  0  0  0  0  0  0  0
    1.2049    2.1871   -0.0000 H   0  0  0  0  0  0  0  0  0  0  0  0
   -1.2049    2.1871    0.0000 H   0  0  0  0  0  0  0  0  0  0  0  0
   -2.1691    0.0854    0.8746 H   0  0  0  0  0  0  0  0  0  0  0  0
   -2.1691    0.0854   -0.8746 H   0  0  0  0  0  0  0  0  0  0  0  0
   -1.1055   -1.8827    0.8729 H   0  0  0  0  0  0  0  0  0  0  0  0
   -1.1055   -1.8827   -0.8729 H   0  0  0  0  0  0  0  0  0  0  0  0
    1.1055   -1.8827    0.8729 H   0  0  0  0  0  0  0  0  0  0  0  0
    1.1055   -1.8827   -0.8729 H   0  0  0  0  0  0  0  0  0  0  0  0
  1  2  1  0  0  0  0
  2  3  2  0  0  0  0
  3  4  1  0  0  0  0
  4  5  1  0  0  0  0
  1  6  1  0  0  0  0
  5  6  1  0  0  0  0
  1  7  1  0  0  0  0
  1  8  1  0  0  0  0
  2  9  1  0  0  0  0
  3 10  1  0  0  0  0
  4 11  1  0  0  0  0
  4 12  1  0  0  0  0
  5 13  1  0  0  0  0
  5 14  1  0  0  0  0
  6 15  1  0  0  0  0
  6 16  1  0  0  0  0
M  END
