 xtb: 6.7.1pre (5071a88)
          07102614143D

 24 16  0     0  0            999 V2000
    4.4542    4.7419    3.6672 O   0  0  0  0  0  0  0  0  0  0  0  0
    4.1386    4.4020    4.5140 H   0  0  0  0  0  0  0  0  0  0  0  0
    5.3679    4.4304    3.6092 H   0  0  0  0  0  0  0  0  0  0  0  0
    4.6212    4.4480    6.5794 O   0  0  0  0  0  0  0  0  0  0  0  0
    3.9593    4.0377    7.1381 H   0  0  0  0  0  0  0  0  0  0  0  0
    4.4951    5.4132    6.6744 H   0  0  0  0  0  0  0  0  0  0  0  0
    4.7640    7.4944    4.0453 O   0  0  0  0  0  0  0  0  0  0  0  0
    4.5229    6.6011    3.7427 H   0  0  0  0  0  0  0  0  0  0  0  0
    4.4470    7.5341    4.9583 H   0  0  0  0  0  0  0  0  0  0  0  0
    4.4872    7.1669    6.8749 O   0  0  0  0  0  0  0  0  0  0  0  0
    5.4586    7.3035    7.0437 H   0  0  0  0  0  0  0  0  0  0  0  0
    4.0476    7.7479    7.4980 H   0  0  0  0  0  0  0  0  0  0  0  0
    6.9746    4.2209    4.8469 O   0  0  0  0  0  0  0  0  0  0  0  0
    6.2069    4.2378    5.4315 H   0  0  0  0  0  0  0  0  0  0  0  0
    7.2201    5.1526    4.7183 H   0  0  0  0  0  0  0  0  0  0  0  0
    7.3770    4.6605    7.6187 O   0  0  0  0  0  0  0  0  0  0  0  0
    7.7974    4.3075    6.8236 H   0  0  0  0  0  0  0  0  0  0  0  0
    6.4422    4.4399    7.5195 H   0  0  0  0  0  0  0  0  0  0  0  0
    7.3431    7.0110    4.5540 O   0  0  0  0  0  0  0  0  0  0  0  0
    6.4026    7.2348    4.3441 H   0  0  0  0  0  0  0  0  0  0  0  0
    7.8600    7.4268    3.8625 H   0  0  0  0  0  0  0  0  0  0  0  0
    7.0845    7.4252    7.3212 O   0  0  0  0  0  0  0  0  0  0  0  0
    7.3953    7.4496    6.4020 H   0  0  0  0  0  0  0  0  0  0  0  0
    7.3275    6.5311    7.6207 H   0  0  0  0  0  0  0  0  0  0  0  0
  1  2  1  0  0  0  0
  1  3  1  0  0  0  0
  4  5  1  0  0  0  0
  4  6  1  0  0  0  0
  7  8  1  0  0  0  0
  7  9  1  0  0  0  0
 10 11  1  0  0  0  0
 10 12  1  0  0  0  0
 13 14  1  0  0  0  0
 13 15  1  0  0  0  0
 16 17  1  0  0  0  0
 16 18  1  0  0  0  0
 19 20  1  0  0  0  0
 19 21  1  0  0  0  0
 22 23  1  0  0  0  0
 22 24  1  0  0  0  0
M  END
