 xtb: 6.7.1 (edcfbbe)
          07172616023D

 16 14  0     0  0            999 V2000
   -0.7771    1.0026   -0.3743 C   0  0  0  0  0  0  0  0  0  0  0  0
    0.0080   -0.0681   -0.4152 C   0  0  0  0  0  0  0  0  0  0  0  0
    1.4620   -0.0681   -0.4152 C   0  0  0  0  0  0  0  0  0  0  0  0
    2.2471    1.0026   -0.3743 C   0  0  0  0  0  0  0  0  0  0  0  0
    1.3931    1.2685    2.8508 C   0  0  0  0  0  0  0  0  0  0  0  0
    0.0769    1.2685    2.8508 C   0  0  0  0  0  0  0  0  0  0  0  0
   -0.3838    2.0037   -0.3411 H   0  0  0  0  0  0  0  0  0  0  0  0
   -1.8502    0.9147   -0.3735 H   0  0  0  0  0  0  0  0  0  0  0  0
   -0.4476   -1.0504   -0.4479 H   0  0  0  0  0  0  0  0  0  0  0  0
    1.9176   -1.0504   -0.4479 H   0  0  0  0  0  0  0  0  0  0  0  0
    3.3202    0.9147   -0.3735 H   0  0  0  0  0  0  0  0  0  0  0  0
    1.8538    2.0037   -0.3411 H   0  0  0  0  0  0  0  0  0  0  0  0
    1.9640    0.3598    2.9433 H   0  0  0  0  0  0  0  0  0  0  0  0
    1.9659    2.1765    2.7578 H   0  0  0  0  0  0  0  0  0  0  0  0
   -0.4959    2.1765    2.7579 H   0  0  0  0  0  0  0  0  0  0  0  0
   -0.4940    0.3598    2.9434 H   0  0  0  0  0  0  0  0  0  0  0  0
  1  2  2  0  0  0  0
  2  3  1  0  0  0  0
  3  4  2  0  0  0  0
  5  6  2  0  0  0  0
  1  7  1  0  0  0  0
  1  8  1  0  0  0  0
  2  9  1  0  0  0  0
  3 10  1  0  0  0  0
  4 11  1  0  0  0  0
  4 12  1  0  0  0  0
  5 13  1  0  0  0  0
  5 14  1  0  0  0  0
  6 15  1  0  0  0  0
  6 16  1  0  0  0  0
M  END
