 xtb: 6.7.1 (edcfbbe)
          07172617073D

 90 60  0     0  0            999 V2000
   -1.1749   -3.4333   -3.7068 O   0  0  0  0  0  0  0  0  0  0  0  0
   -1.4192   -3.6779   -2.8005 H   0  0  0  0  0  0  0  0  0  0  0  0
   -0.2276   -3.6417   -3.7826 H   0  0  0  0  0  0  0  0  0  0  0  0
   -1.3276   -3.6021   -0.9610 O   0  0  0  0  0  0  0  0  0  0  0  0
   -1.6689   -3.8682   -0.0982 H   0  0  0  0  0  0  0  0  0  0  0  0
   -1.0694   -2.6622   -0.8636 H   0  0  0  0  0  0  0  0  0  0  0  0
   -1.4798   -3.6746    1.8259 O   0  0  0  0  0  0  0  0  0  0  0  0
   -0.5220   -3.5513    1.6592 H   0  0  0  0  0  0  0  0  0  0  0  0
   -1.5350   -3.8202    2.7909 H   0  0  0  0  0  0  0  0  0  0  0  0
   -1.0357   -3.5589    4.4917 O   0  0  0  0  0  0  0  0  0  0  0  0
   -0.0862   -3.7564    4.4662 H   0  0  0  0  0  0  0  0  0  0  0  0
   -1.0938   -2.5917    4.4993 H   0  0  0  0  0  0  0  0  0  0  0  0
   -1.0572   -0.8230   -3.4887 O   0  0  0  0  0  0  0  0  0  0  0  0
   -1.2159   -1.7913   -3.6507 H   0  0  0  0  0  0  0  0  0  0  0  0
   -1.4928   -0.3298   -4.1890 H   0  0  0  0  0  0  0  0  0  0  0  0
   -0.5358   -0.9810   -0.8181 O   0  0  0  0  0  0  0  0  0  0  0  0
    0.4270   -0.8235   -0.8739 H   0  0  0  0  0  0  0  0  0  0  0  0
   -0.8849   -0.7429   -1.6925 H   0  0  0  0  0  0  0  0  0  0  0  0
   -1.9290   -1.0682    1.5609 O   0  0  0  0  0  0  0  0  0  0  0  0
   -1.9726   -2.0457    1.6675 H   0  0  0  0  0  0  0  0  0  0  0  0
   -1.3973   -0.9481    0.7547 H   0  0  0  0  0  0  0  0  0  0  0  0
   -0.8295   -0.8154    3.9683 O   0  0  0  0  0  0  0  0  0  0  0  0
   -1.2138   -0.8280    3.0603 H   0  0  0  0  0  0  0  0  0  0  0  0
   -1.0462    0.0419    4.3626 H   0  0  0  0  0  0  0  0  0  0  0  0
   -1.1498    1.8792   -4.6904 O   0  0  0  0  0  0  0  0  0  0  0  0
   -1.1838    1.7050   -3.7354 H   0  0  0  0  0  0  0  0  0  0  0  0
   -0.2436    1.6201   -4.9896 H   0  0  0  0  0  0  0  0  0  0  0  0
   -1.2371    1.9652   -1.9295 O   0  0  0  0  0  0  0  0  0  0  0  0
   -1.7085    1.5392   -1.1956 H   0  0  0  0  0  0  0  0  0  0  0  0
   -1.5454    2.9009   -1.9309 H   0  0  0  0  0  0  0  0  0  0  0  0
   -2.2495    1.4099    0.5153 O   0  0  0  0  0  0  0  0  0  0  0  0
   -2.7038    0.7475    1.0478 H   0  0  0  0  0  0  0  0  0  0  0  0
   -2.4318    2.3082    0.8539 H   0  0  0  0  0  0  0  0  0  0  0  0
   -0.8953    1.6559    5.2335 O   0  0  0  0  0  0  0  0  0  0  0  0
   -1.3047    1.7954    6.0875 H   0  0  0  0  0  0  0  0  0  0  0  0
    0.0742    1.5222    5.4061 H   0  0  0  0  0  0  0  0  0  0  0  0
   -0.5490    4.4083   -4.3245 O   0  0  0  0  0  0  0  0  0  0  0  0
   -0.8482    3.4760   -4.5367 H   0  0  0  0  0  0  0  0  0  0  0  0
   -0.5310    4.8770   -5.1585 H   0  0  0  0  0  0  0  0  0  0  0  0
   -1.7529    4.6028   -1.8927 O   0  0  0  0  0  0  0  0  0  0  0  0
   -1.4574    4.7163   -2.8144 H   0  0  0  0  0  0  0  0  0  0  0  0
   -1.0156    4.9132   -1.3497 H   0  0  0  0  0  0  0  0  0  0  0  0
   -2.1804    4.0476    1.0806 O   0  0  0  0  0  0  0  0  0  0  0  0
   -2.7914    4.4697    0.4716 H   0  0  0  0  0  0  0  0  0  0  0  0
   -1.2910    4.2575    0.7225 H   0  0  0  0  0  0  0  0  0  0  0  0
   -0.3290    3.3417    3.1539 O   0  0  0  0  0  0  0  0  0  0  0  0
   -0.6266    2.8406    3.9341 H   0  0  0  0  0  0  0  0  0  0  0  0
   -1.1183    3.7142    2.7434 H   0  0  0  0  0  0  0  0  0  0  0  0
    1.6098   -3.5822   -3.7108 O   0  0  0  0  0  0  0  0  0  0  0  0
    1.6966   -2.5976   -3.7515 H   0  0  0  0  0  0  0  0  0  0  0  0
    2.1481   -3.9346   -4.4190 H   0  0  0  0  0  0  0  0  0  0  0  0
    1.3089   -4.3168   -1.0118 O   0  0  0  0  0  0  0  0  0  0  0  0
    1.6117   -4.0848   -1.9003 H   0  0  0  0  0  0  0  0  0  0  0  0
    0.3355   -4.2566   -1.0547 H   0  0  0  0  0  0  0  0  0  0  0  0
    1.1643   -3.1867    1.4032 O   0  0  0  0  0  0  0  0  0  0  0  0
    1.3798   -3.6157    0.5496 H   0  0  0  0  0  0  0  0  0  0  0  0
    1.4628   -2.2561    1.3400 H   0  0  0  0  0  0  0  0  0  0  0  0
    1.7134   -3.8368    3.9309 O   0  0  0  0  0  0  0  0  0  0  0  0
    2.1578   -4.6827    3.9797 H   0  0  0  0  0  0  0  0  0  0  0  0
    1.5436   -3.6656    2.9744 H   0  0  0  0  0  0  0  0  0  0  0  0
    1.6140   -0.9310   -3.6999 O   0  0  0  0  0  0  0  0  0  0  0  0
    1.9536   -0.7140   -2.8170 H   0  0  0  0  0  0  0  0  0  0  0  0
    0.6351   -0.8409   -3.6342 H   0  0  0  0  0  0  0  0  0  0  0  0
    2.0886   -0.2539   -1.1059 O   0  0  0  0  0  0  0  0  0  0  0  0
    2.4231   -0.4919   -0.2294 H   0  0  0  0  0  0  0  0  0  0  0  0
    1.9624    0.7125   -1.0978 H   0  0  0  0  0  0  0  0  0  0  0  0
    2.0641   -0.6472    1.5875 O   0  0  0  0  0  0  0  0  0  0  0  0
    2.2098   -0.7911    2.5433 H   0  0  0  0  0  0  0  0  0  0  0  0
    1.3698    0.0378    1.5559 H   0  0  0  0  0  0  0  0  0  0  0  0
    1.7971   -1.0853    4.2213 O   0  0  0  0  0  0  0  0  0  0  0  0
    0.8162   -1.0239    4.1101 H   0  0  0  0  0  0  0  0  0  0  0  0
    1.9664   -2.0256    4.3749 H   0  0  0  0  0  0  0  0  0  0  0  0
    1.3982    1.3652   -5.2417 O   0  0  0  0  0  0  0  0  0  0  0  0
    1.6577    0.5251   -4.8310 H   0  0  0  0  0  0  0  0  0  0  0  0
    1.7750    2.0718   -4.6842 H   0  0  0  0  0  0  0  0  0  0  0  0
    1.1253    2.3064   -0.8465 O   0  0  0  0  0  0  0  0  0  0  0  0
    0.2869    2.1152   -1.3462 H   0  0  0  0  0  0  0  0  0  0  0  0
    0.9352    1.9583    0.0600 H   0  0  0  0  0  0  0  0  0  0  0  0
    0.2751    1.3786    1.4615 O   0  0  0  0  0  0  0  0  0  0  0  0
    0.1703    2.0986    2.1231 H   0  0  0  0  0  0  0  0  0  0  0  0
   -0.6270    1.2012    1.1203 H   0  0  0  0  0  0  0  0  0  0  0  0
    1.7139    1.2948    5.4843 O   0  0  0  0  0  0  0  0  0  0  0  0
    1.8670    0.3931    5.1360 H   0  0  0  0  0  0  0  0  0  0  0  0
    2.1406    1.8964    4.8710 H   0  0  0  0  0  0  0  0  0  0  0  0
    1.9055    3.3694   -3.4398 O   0  0  0  0  0  0  0  0  0  0  0  0
    1.0996    3.8632   -3.6693 H   0  0  0  0  0  0  0  0  0  0  0  0
    1.7924    3.0515   -2.5379 H   0  0  0  0  0  0  0  0  0  0  0  0
    0.2746    4.6751    0.0429 O   0  0  0  0  0  0  0  0  0  0  0  0
    0.8821    5.0430    0.6865 H   0  0  0  0  0  0  0  0  0  0  0  0
    0.7037    3.8647   -0.3240 H   0  0  0  0  0  0  0  0  0  0  0  0
  1  2  1  0  0  0  0
  1  3  1  0  0  0  0
  4  5  1  0  0  0  0
  4  6  1  0  0  0  0
  7  8  1  0  0  0  0
  7  9  1  0  0  0  0
 10 11  1  0  0  0  0
 10 12  1  0  0  0  0
 13 14  1  0  0  0  0
 13 15  1  0  0  0  0
 16 17  1  0  0  0  0
 16 18  1  0  0  0  0
 19 20  1  0  0  0  0
 19 21  1  0  0  0  0
 22 23  1  0  0  0  0
 22 24  1  0  0  0  0
 25 26  1  0  0  0  0
 25 27  1  0  0  0  0
 28 29  1  0  0  0  0
 28 30  1  0  0  0  0
 31 32  1  0  0  0  0
 31 33  1  0  0  0  0
 34 35  1  0  0  0  0
 34 36  1  0  0  0  0
 37 38  1  0  0  0  0
 37 39  1  0  0  0  0
 40 41  1  0  0  0  0
 40 42  1  0  0  0  0
 43 44  1  0  0  0  0
 43 45  1  0  0  0  0
 46 47  1  0  0  0  0
 46 48  1  0  0  0  0
 49 50  1  0  0  0  0
 49 51  1  0  0  0  0
 52 53  1  0  0  0  0
 52 54  1  0  0  0  0
 55 56  1  0  0  0  0
 55 57  1  0  0  0  0
 58 59  1  0  0  0  0
 58 60  1  0  0  0  0
 61 62  1  0  0  0  0
 61 63  1  0  0  0  0
 64 65  1  0  0  0  0
 64 66  1  0  0  0  0
 67 68  1  0  0  0  0
 67 69  1  0  0  0  0
 70 71  1  0  0  0  0
 70 72  1  0  0  0  0
 73 74  1  0  0  0  0
 73 75  1  0  0  0  0
 76 77  1  0  0  0  0
 76 78  1  0  0  0  0
 79 80  1  0  0  0  0
 79 81  1  0  0  0  0
 82 83  1  0  0  0  0
 82 84  1  0  0  0  0
 85 86  1  0  0  0  0
 85 87  1  0  0  0  0
 88 89  1  0  0  0  0
 88 90  1  0  0  0  0
M  END
