 xtb: 6.7.1 (edcfbbe)
          07172615523D

150100  0     0  0            999 V2000
   -3.0011   -3.6849   -4.2365 O   0  0  0  0  0  0  0  0  0  0  0  0
   -3.3521   -4.2762   -3.5630 H   0  0  0  0  0  0  0  0  0  0  0  0
   -2.0609   -3.9001   -4.3274 H   0  0  0  0  0  0  0  0  0  0  0  0
   -3.7399   -4.1458   -1.3893 O   0  0  0  0  0  0  0  0  0  0  0  0
   -3.8067   -4.3196   -0.4364 H   0  0  0  0  0  0  0  0  0  0  0  0
   -4.1109   -3.2691   -1.5381 H   0  0  0  0  0  0  0  0  0  0  0  0
   -3.3174   -4.2518    1.3687 O   0  0  0  0  0  0  0  0  0  0  0  0
   -2.3408   -4.2240    1.2875 H   0  0  0  0  0  0  0  0  0  0  0  0
   -3.4550   -4.3212    2.3317 H   0  0  0  0  0  0  0  0  0  0  0  0
   -2.9306   -3.8668    4.0190 O   0  0  0  0  0  0  0  0  0  0  0  0
   -1.9836   -4.0470    4.0965 H   0  0  0  0  0  0  0  0  0  0  0  0
   -3.0265   -2.9047    4.0288 H   0  0  0  0  0  0  0  0  0  0  0  0
   -3.7403   -1.4446   -2.9215 O   0  0  0  0  0  0  0  0  0  0  0  0
   -3.4935   -2.1503   -3.5548 H   0  0  0  0  0  0  0  0  0  0  0  0
   -3.6889   -0.5967   -3.3803 H   0  0  0  0  0  0  0  0  0  0  0  0
   -1.8788   -1.3625   -1.0660 O   0  0  0  0  0  0  0  0  0  0  0  0
   -1.3848   -2.1979   -1.1909 H   0  0  0  0  0  0  0  0  0  0  0  0
   -2.5808   -1.3934   -1.7583 H   0  0  0  0  0  0  0  0  0  0  0  0
   -3.4489   -1.5726    1.1193 O   0  0  0  0  0  0  0  0  0  0  0  0
   -3.5700   -2.5395    1.2098 H   0  0  0  0  0  0  0  0  0  0  0  0
   -2.8046   -1.4656    0.3929 H   0  0  0  0  0  0  0  0  0  0  0  0
   -2.8702   -1.0336    3.6120 O   0  0  0  0  0  0  0  0  0  0  0  0
   -3.0714   -1.1683    2.6488 H   0  0  0  0  0  0  0  0  0  0  0  0
   -3.1102   -0.1210    3.8106 H   0  0  0  0  0  0  0  0  0  0  0  0
   -2.9770    1.3226   -3.3148 O   0  0  0  0  0  0  0  0  0  0  0  0
   -2.9507    1.2888   -2.3370 H   0  0  0  0  0  0  0  0  0  0  0  0
   -2.0553    1.1731   -3.5880 H   0  0  0  0  0  0  0  0  0  0  0  0
   -2.4705    1.1979   -0.6559 O   0  0  0  0  0  0  0  0  0  0  0  0
   -2.2526    0.2476   -0.6860 H   0  0  0  0  0  0  0  0  0  0  0  0
   -3.0487    1.3215    0.1094 H   0  0  0  0  0  0  0  0  0  0  0  0
   -3.5912    1.9501    1.7339 O   0  0  0  0  0  0  0  0  0  0  0  0
   -3.7296    1.8215    2.6799 H   0  0  0  0  0  0  0  0  0  0  0  0
   -3.6102    2.9108    1.5681 H   0  0  0  0  0  0  0  0  0  0  0  0
   -3.0720    1.7198    4.4635 O   0  0  0  0  0  0  0  0  0  0  0  0
   -3.5025    1.6692    5.3175 H   0  0  0  0  0  0  0  0  0  0  0  0
   -2.0961    1.5569    4.6405 H   0  0  0  0  0  0  0  0  0  0  0  0
   -2.7379    3.9634   -3.4281 O   0  0  0  0  0  0  0  0  0  0  0  0
   -2.8836    2.9832   -3.4267 H   0  0  0  0  0  0  0  0  0  0  0  0
   -3.4497    4.3452   -3.9406 H   0  0  0  0  0  0  0  0  0  0  0  0
   -2.0085    4.9639   -0.9401 O   0  0  0  0  0  0  0  0  0  0  0  0
   -2.3550    4.6196   -1.7814 H   0  0  0  0  0  0  0  0  0  0  0  0
   -1.0477    4.8482   -0.9984 H   0  0  0  0  0  0  0  0  0  0  0  0
   -3.3751    4.6141    1.2696 O   0  0  0  0  0  0  0  0  0  0  0  0
   -4.1455    5.1686    1.1454 H   0  0  0  0  0  0  0  0  0  0  0  0
   -2.8374    4.7113    0.4428 H   0  0  0  0  0  0  0  0  0  0  0  0
   -2.5962    4.4166    3.9414 O   0  0  0  0  0  0  0  0  0  0  0  0
   -2.8279    3.4891    4.1227 H   0  0  0  0  0  0  0  0  0  0  0  0
   -2.8365    4.5824    3.0174 H   0  0  0  0  0  0  0  0  0  0  0  0
   -0.2182   -4.0481   -4.0403 O   0  0  0  0  0  0  0  0  0  0  0  0
   -0.1188   -3.0815   -3.9525 H   0  0  0  0  0  0  0  0  0  0  0  0
    0.6776   -4.3735   -4.2019 H   0  0  0  0  0  0  0  0  0  0  0  0
   -1.0592   -3.8673   -1.4958 O   0  0  0  0  0  0  0  0  0  0  0  0
   -0.6635   -4.0990   -2.3578 H   0  0  0  0  0  0  0  0  0  0  0  0
   -2.0021   -4.1272   -1.5352 H   0  0  0  0  0  0  0  0  0  0  0  0
   -0.6840   -3.6607    1.1173 O   0  0  0  0  0  0  0  0  0  0  0  0
   -0.6944   -3.8233    0.1550 H   0  0  0  0  0  0  0  0  0  0  0  0
   -0.7286   -2.6952    1.2416 H   0  0  0  0  0  0  0  0  0  0  0  0
   -0.0887   -4.1239    4.5587 O   0  0  0  0  0  0  0  0  0  0  0  0
   -0.0070   -4.7082    5.3123 H   0  0  0  0  0  0  0  0  0  0  0  0
    0.8131   -4.0803    4.1477 H   0  0  0  0  0  0  0  0  0  0  0  0
    0.1537   -1.4823   -3.3160 O   0  0  0  0  0  0  0  0  0  0  0  0
    0.3758   -1.5253   -2.3638 H   0  0  0  0  0  0  0  0  0  0  0  0
   -0.1884   -0.5765   -3.4617 H   0  0  0  0  0  0  0  0  0  0  0  0
    1.0394   -1.0057   -0.8230 O   0  0  0  0  0  0  0  0  0  0  0  0
    0.7558   -1.2453    0.0767 H   0  0  0  0  0  0  0  0  0  0  0  0
    0.7727   -0.0794   -0.9239 H   0  0  0  0  0  0  0  0  0  0  0  0
   -0.0990   -1.0670    1.6398 O   0  0  0  0  0  0  0  0  0  0  0  0
    0.0474   -1.2798    2.5748 H   0  0  0  0  0  0  0  0  0  0  0  0
   -0.4180   -0.1460    1.6517 H   0  0  0  0  0  0  0  0  0  0  0  0
   -0.3811   -1.4624    4.3653 O   0  0  0  0  0  0  0  0  0  0  0  0
   -0.3204   -2.4171    4.5574 H   0  0  0  0  0  0  0  0  0  0  0  0
   -1.3141   -1.3166    4.0750 H   0  0  0  0  0  0  0  0  0  0  0  0
   -0.2738    1.1392   -3.4968 O   0  0  0  0  0  0  0  0  0  0  0  0
   -0.1520    1.4012   -2.5704 H   0  0  0  0  0  0  0  0  0  0  0  0
    0.5880    1.3332   -3.9243 H   0  0  0  0  0  0  0  0  0  0  0  0
    0.1215    1.6891   -0.8274 O   0  0  0  0  0  0  0  0  0  0  0  0
   -0.8318    1.6147   -0.5981 H   0  0  0  0  0  0  0  0  0  0  0  0
    0.6255    1.6216    0.0061 H   0  0  0  0  0  0  0  0  0  0  0  0
   -0.8896    1.4798    1.8995 O   0  0  0  0  0  0  0  0  0  0  0  0
   -0.5021    2.3610    1.7723 H   0  0  0  0  0  0  0  0  0  0  0  0
   -1.8537    1.5867    1.8592 H   0  0  0  0  0  0  0  0  0  0  0  0
   -0.5974    1.2320    5.0693 O   0  0  0  0  0  0  0  0  0  0  0  0
    0.1367    1.4769    4.4660 H   0  0  0  0  0  0  0  0  0  0  0  0
   -0.5405    0.2671    5.1117 H   0  0  0  0  0  0  0  0  0  0  0  0
   -0.0520    4.7174   -3.8493 O   0  0  0  0  0  0  0  0  0  0  0  0
   -0.9606    4.3959   -3.9339 H   0  0  0  0  0  0  0  0  0  0  0  0
    0.1394    4.6730   -2.8909 H   0  0  0  0  0  0  0  0  0  0  0  0
    0.6204    4.2895   -1.2643 O   0  0  0  0  0  0  0  0  0  0  0  0
    1.5866    4.3580   -1.4093 H   0  0  0  0  0  0  0  0  0  0  0  0
    0.4453    3.3341   -1.1293 H   0  0  0  0  0  0  0  0  0  0  0  0
    0.1644    3.9827    1.5766 O   0  0  0  0  0  0  0  0  0  0  0  0
   -0.3999    4.6276    1.1460 H   0  0  0  0  0  0  0  0  0  0  0  0
    0.1727    4.1925    2.5426 H   0  0  0  0  0  0  0  0  0  0  0  0
    0.0460    4.4189    4.1834 O   0  0  0  0  0  0  0  0  0  0  0  0
   -0.9298    4.5551    4.2055 H   0  0  0  0  0  0  0  0  0  0  0  0
    0.2042    3.6260    4.7053 H   0  0  0  0  0  0  0  0  0  0  0  0
    2.5722   -4.0436   -4.1301 O   0  0  0  0  0  0  0  0  0  0  0  0
    2.6162   -3.1032   -4.3522 H   0  0  0  0  0  0  0  0  0  0  0  0
    3.4987   -4.3410   -4.1524 H   0  0  0  0  0  0  0  0  0  0  0  0
    2.6733   -4.3822   -1.3741 O   0  0  0  0  0  0  0  0  0  0  0  0
    3.6298   -4.2367   -1.3376 H   0  0  0  0  0  0  0  0  0  0  0  0
    2.4363   -4.2982   -2.3125 H   0  0  0  0  0  0  0  0  0  0  0  0
    2.0022   -3.2982    0.9898 O   0  0  0  0  0  0  0  0  0  0  0  0
    1.0572   -3.5105    1.1174 H   0  0  0  0  0  0  0  0  0  0  0  0
    2.2433   -3.7274    0.1463 H   0  0  0  0  0  0  0  0  0  0  0  0
    2.3698   -3.7273    3.6464 O   0  0  0  0  0  0  0  0  0  0  0  0
    2.6182   -2.8481    3.9546 H   0  0  0  0  0  0  0  0  0  0  0  0
    2.3640   -3.6770    2.6709 H   0  0  0  0  0  0  0  0  0  0  0  0
    2.6046   -1.2330   -4.2817 O   0  0  0  0  0  0  0  0  0  0  0  0
    1.6633   -1.3424   -4.0007 H   0  0  0  0  0  0  0  0  0  0  0  0
    2.6734   -0.3058   -4.5470 H   0  0  0  0  0  0  0  0  0  0  0  0
    3.5683   -1.2030   -1.7875 O   0  0  0  0  0  0  0  0  0  0  0  0
    3.3240   -1.2982   -2.7359 H   0  0  0  0  0  0  0  0  0  0  0  0
    2.7301   -1.3270   -1.2981 H   0  0  0  0  0  0  0  0  0  0  0  0
    3.1602   -0.9101    1.5788 O   0  0  0  0  0  0  0  0  0  0  0  0
    2.9867   -0.9289    2.5384 H   0  0  0  0  0  0  0  0  0  0  0  0
    2.7405   -1.7224    1.2362 H   0  0  0  0  0  0  0  0  0  0  0  0
    2.3137   -0.8489    4.1758 O   0  0  0  0  0  0  0  0  0  0  0  0
    1.3922   -1.1137    4.3205 H   0  0  0  0  0  0  0  0  0  0  0  0
    2.2769    0.1241    4.1738 H   0  0  0  0  0  0  0  0  0  0  0  0
    2.2795    1.5264   -4.1470 O   0  0  0  0  0  0  0  0  0  0  0  0
    2.5990    1.4991   -3.2208 H   0  0  0  0  0  0  0  0  0  0  0  0
    2.4310    2.4376   -4.4429 H   0  0  0  0  0  0  0  0  0  0  0  0
    3.1769    1.4211   -1.5920 O   0  0  0  0  0  0  0  0  0  0  0  0
    3.5622    0.5209   -1.6434 H   0  0  0  0  0  0  0  0  0  0  0  0
    2.6574    1.4103   -0.7675 H   0  0  0  0  0  0  0  0  0  0  0  0
    2.0760    1.3566    0.9451 O   0  0  0  0  0  0  0  0  0  0  0  0
    2.6763    2.1005    1.1123 H   0  0  0  0  0  0  0  0  0  0  0  0
    2.5357    0.4955    1.1620 H   0  0  0  0  0  0  0  0  0  0  0  0
    1.6054    1.7254    3.6535 O   0  0  0  0  0  0  0  0  0  0  0  0
    1.5047    1.5969    2.6946 H   0  0  0  0  0  0  0  0  0  0  0  0
    2.1519    2.5318    3.7754 H   0  0  0  0  0  0  0  0  0  0  0  0
    2.4618    4.2317   -4.5141 O   0  0  0  0  0  0  0  0  0  0  0  0
    1.5027    4.4065   -4.3557 H   0  0  0  0  0  0  0  0  0  0  0  0
    2.7228    4.8027   -5.2359 H   0  0  0  0  0  0  0  0  0  0  0  0
    3.2430    4.1368   -1.8313 O   0  0  0  0  0  0  0  0  0  0  0  0
    3.4101    3.1797   -1.7617 H   0  0  0  0  0  0  0  0  0  0  0  0
    3.1556    4.3112   -2.7821 H   0  0  0  0  0  0  0  0  0  0  0  0
    2.8574    3.9620    1.0207 O   0  0  0  0  0  0  0  0  0  0  0  0
    1.8853    4.0611    1.0305 H   0  0  0  0  0  0  0  0  0  0  0  0
    3.1653    4.2687    0.1611 H   0  0  0  0  0  0  0  0  0  0  0  0
    2.8993    4.0583    3.7670 O   0  0  0  0  0  0  0  0  0  0  0  0
    2.1645    4.6453    3.9723 H   0  0  0  0  0  0  0  0  0  0  0  0
    3.0900    4.1655    2.8212 H   0  0  0  0  0  0  0  0  0  0  0  0
    5.2951   -4.1473   -3.8602 O   0  0  0  0  0  0  0  0  0  0  0  0
    5.3864   -3.9360   -2.9173 H   0  0  0  0  0  0  0  0  0  0  0  0
    5.7224   -3.4344   -4.3378 H   0  0  0  0  0  0  0  0  0  0  0  0
    5.2100   -3.2231   -1.2463 O   0  0  0  0  0  0  0  0  0  0  0  0
    5.5449   -3.1591   -0.3516 H   0  0  0  0  0  0  0  0  0  0  0  0
    4.6617   -2.4161   -1.3959 H   0  0  0  0  0  0  0  0  0  0  0  0
  1  2  1  0  0  0  0
  1  3  1  0  0  0  0
  4  5  1  0  0  0  0
  4  6  1  0  0  0  0
  7  8  1  0  0  0  0
  7  9  1  0  0  0  0
 10 11  1  0  0  0  0
 10 12  1  0  0  0  0
 13 14  1  0  0  0  0
 13 15  1  0  0  0  0
 16 17  1  0  0  0  0
 16 18  1  0  0  0  0
 19 20  1  0  0  0  0
 19 21  1  0  0  0  0
 22 23  1  0  0  0  0
 22 24  1  0  0  0  0
 25 26  1  0  0  0  0
 25 27  1  0  0  0  0
 28 29  1  0  0  0  0
 28 30  1  0  0  0  0
 31 32  1  0  0  0  0
 31 33  1  0  0  0  0
 34 35  1  0  0  0  0
 34 36  1  0  0  0  0
 37 38  1  0  0  0  0
 37 39  1  0  0  0  0
 40 41  1  0  0  0  0
 40 42  1  0  0  0  0
 43 44  1  0  0  0  0
 43 45  1  0  0  0  0
 46 47  1  0  0  0  0
 46 48  1  0  0  0  0
 49 50  1  0  0  0  0
 49 51  1  0  0  0  0
 52 53  1  0  0  0  0
 52 54  1  0  0  0  0
 55 56  1  0  0  0  0
 55 57  1  0  0  0  0
 58 59  1  0  0  0  0
 58 60  1  0  0  0  0
 61 62  1  0  0  0  0
 61 63  1  0  0  0  0
 64 65  1  0  0  0  0
 64 66  1  0  0  0  0
 67 68  1  0  0  0  0
 67 69  1  0  0  0  0
 70 71  1  0  0  0  0
 70 72  1  0  0  0  0
 73 74  1  0  0  0  0
 73 75  1  0  0  0  0
 76 77  1  0  0  0  0
 76 78  1  0  0  0  0
 79 80  1  0  0  0  0
 79 81  1  0  0  0  0
 82 83  1  0  0  0  0
 82 84  1  0  0  0  0
 85 86  1  0  0  0  0
 85 87  1  0  0  0  0
 88 89  1  0  0  0  0
 88 90  1  0  0  0  0
 91 92  1  0  0  0  0
 91 93  1  0  0  0  0
 94 95  1  0  0  0  0
 94 96  1  0  0  0  0
 97 98  1  0  0  0  0
 97 99  1  0  0  0  0
100101  1  0  0  0  0
100102  1  0  0  0  0
103104  1  0  0  0  0
103105  1  0  0  0  0
106107  1  0  0  0  0
106108  1  0  0  0  0
109110  1  0  0  0  0
109111  1  0  0  0  0
112113  1  0  0  0  0
112114  1  0  0  0  0
115116  1  0  0  0  0
115117  1  0  0  0  0
118119  1  0  0  0  0
118120  1  0  0  0  0
121122  1  0  0  0  0
121123  1  0  0  0  0
124125  1  0  0  0  0
124126  1  0  0  0  0
127128  1  0  0  0  0
127129  1  0  0  0  0
130131  1  0  0  0  0
130132  1  0  0  0  0
133134  1  0  0  0  0
133135  1  0  0  0  0
136137  1  0  0  0  0
136138  1  0  0  0  0
139140  1  0  0  0  0
139141  1  0  0  0  0
142143  1  0  0  0  0
142144  1  0  0  0  0
145146  1  0  0  0  0
145147  1  0  0  0  0
148149  1  0  0  0  0
148150  1  0  0  0  0
M  END
