 xtb: 6.7.1pre (5071a88)
          07032611103D

  3  2  0     0  0            999 V2000
    0.0000    0.0000    0.0120 O   0  0  0  0  0  0  0  0  0  0  0  0
    0.7721    0.0000    0.5811 H   0  0  0  0  0  0  0  0  0  0  0  0
   -0.7721    0.0000    0.5811 H   0  0  0  0  0  0  0  0  0  0  0  0
  1  2  1  0  0  0  0
  1  3  1  0  0  0  0
M  END
