 xtb: 6.7.1pre (5071a88)
          07032611173D

  9  6  0     0  0            999 V2000
    1.5039   -0.3841    0.8415 O   0  0  0  0  0  0  0  0  0  0  0  0
    1.0530    0.4731    0.7590 H   0  0  0  0  0  0  0  0  0  0  0  0
    2.2319   -0.3698    0.2186 H   0  0  0  0  0  0  0  0  0  0  0  0
   -0.4327    1.5120    0.1535 O   0  0  0  0  0  0  0  0  0  0  0  0
   -0.6560    1.9284   -0.6798 H   0  0  0  0  0  0  0  0  0  0  0  0
   -0.9215    0.6686    0.1775 H   0  0  0  0  0  0  0  0  0  0  0  0
   -1.1075   -1.1600    0.3623 O   0  0  0  0  0  0  0  0  0  0  0  0
   -0.1476   -1.1836    0.5275 H   0  0  0  0  0  0  0  0  0  0  0  0
   -1.5235   -1.4846    1.1624 H   0  0  0  0  0  0  0  0  0  0  0  0
  1  2  1  0  0  0  0
  1  3  1  0  0  0  0
  4  5  1  0  0  0  0
  4  6  1  0  0  0  0
  7  8  1  0  0  0  0
  7  9  1  0  0  0  0
M  END
