 xtb: 6.7.1pre (5071a88)
          06172612013D

  3  2  0     0  0            999 V2000
    0.0000    0.0000    0.1058 o   0  0  0  0  0  0  0  0  0  0  0  0
    0.0000    0.7721   -0.4633 h   0  0  0  0  0  0  0  0  0  0  0  0
    0.0000   -0.7721   -0.4633 h   0  0  0  0  0  0  0  0  0  0  0  0
  1  2  1  0  0  0  0
  1  3  1  0  0  0  0
M  END
