 xtb: 6.7.1pre (5071a88)
          07032611123D

  6  4  0     0  0            999 V2000
   -3.2582   -0.0448    0.3090 O   0  0  0  0  0  0  0  0  0  0  0  0
   -2.5382    0.0208   -0.3214 H   0  0  0  0  0  0  0  0  0  0  0  0
   -2.8766    0.0455    1.1844 H   0  0  0  0  0  0  0  0  0  0  0  0
    5.4205    0.0677    0.3571 O   0  0  0  0  0  0  0  0  0  0  0  0
    5.8307   -0.4727    1.0353 H   0  0  0  0  0  0  0  0  0  0  0  0
    6.1219    0.3835   -0.2161 H   0  0  0  0  0  0  0  0  0  0  0  0
  1  2  1  0  0  0  0
  1  3  1  0  0  0  0
  4  5  1  0  0  0  0
  4  6  1  0  0  0  0
M  END
